@<TRIPOS>MOLECULE
Untitled ACS Document 1996-8
50 53 1 0 0 
SMALL
USER_CHARGES


@<TRIPOS>ATOM
  1 C      -10.8930   -46.1113    28.6467 C.ar  1 <1>   0.1000 
  2 N      -11.2355   -45.6706    27.3766 N.pl3 1 <1>  -0.8691 
  3 H      -10.4932   -45.7596    26.6633 H     1 <1>   0.4000 
  4 C      -12.0693   -44.4713    27.2259 C.3   1 <1>   0.5892 
  5 H      -12.5085   -44.4754    26.2366 H     1 <1>   0.0800 
  6 N      -13.1469   -44.4732    28.2186 N.am  1 <1>  -0.2981 
  7 C      -12.8280   -44.8846    29.5360 C.2   1 <1>   0.5438 
  8 N      -14.3747   -43.9355    27.7830 N.2   1 <1>  -0.5120 
  9 C      -11.2193   -43.1603    27.3866 C.3   1 <1>   0.1401 
 10 H1     -11.8361   -42.3323    27.0453 H     1 <1>   0.0800 
 11 H2     -10.3410   -43.2204    26.7490 H     1 <1>   0.0800 
 12 N      -10.8088   -42.8793    28.7868 N.am  1 <1>  -0.7301 
 13 H      -11.5709   -42.7597    29.4758 H     1 <1>   0.3700 
 14 C       -9.5682   -43.1771    29.2872 C.2   1 <1>   0.5438 
 15 O       -8.6836   -43.4266    28.4712 O.2   1 <1>  -0.5700 
 16 C       -9.3627   -43.1210    30.7409 C.ar  1 <1>   0.0862 
 17 O      -13.4404   -44.3580    30.4648 O.2   1 <1>  -0.5700 
 18 C      -10.4369   -42.9104    31.6311 C.ar  1 <1>  -0.1500 
 19 H      -11.4351   -42.8647    31.2790 H     1 <1>   0.1500 
 20 C      -10.2141   -42.7383    32.9897 C.ar  1 <1>  -0.1500 
 21 H      -11.0253   -42.5585    33.6510 H     1 <1>   0.1500 
 22 C       -8.9150   -42.7849    33.4927 C.ar  1 <1>   0.1770 
 23 C       -7.8442   -43.0738    32.6412 C.ar  1 <1>  -0.1500 
 24 H       -6.8624   -43.1558    33.0346 H     1 <1>   0.1500 
 25 C       -8.0682   -43.2379    31.2787 C.ar  1 <1>  -0.1500 
 26 H       -7.2466   -43.4416    30.6359 H     1 <1>   0.1500 
 27 C      -11.6814   -45.7495    29.7469 C.ar  1 <1>   0.0862 
 28 C      -10.1179   -46.9074    31.1928 C.ar  1 <1>  -0.1500 
 29 H       -9.8156   -47.2158    32.1609 H     1 <1>   0.1500 
 30 C       -9.3435   -47.2533    30.0848 C.ar  1 <1>  -0.1500 
 31 H       -8.4601   -47.8250    30.2246 H     1 <1>   0.1500 
 32 C       -9.7400   -46.8767    28.8088 C.ar  1 <1>  -0.1500 
 33 H       -9.1807   -47.1676    27.9612 H     1 <1>   0.1500 
 34 C      -11.2852   -46.1726    31.0244 C.ar  1 <1>  -0.1500 
 35 H      -11.8735   -45.9172    31.8694 H     1 <1>   0.1500 
 36 C      -15.4465   -44.2180    28.4392 C.2   1 <1>   0.3038 
 37 H      -15.3942   -44.8748    29.2678 H     1 <1>   0.0600 
 38 C      -16.7656   -43.7015    28.1237 C.ar  1 <1>   0.0862 
 39 C      -17.0217   -42.8596    27.0247 C.ar  1 <1>  -0.1500 
 40 H      -16.2317   -42.5954    26.3710 H     1 <1>   0.1500 
 41 C      -18.3021   -42.3652    26.7929 C.ar  1 <1>  -0.1500 
 42 H      -18.4952   -41.7162    25.9762 H     1 <1>   0.1500 
 43 C      -19.3339   -42.7138    27.6583 C.ar  1 <1>   0.0825 
 44 C      -19.1200   -43.5832    28.7205 C.ar  1 <1>  -0.1500 
 45 H      -19.9194   -43.8733    29.3516 H     1 <1>   0.1500 
 46 C      -17.8399   -44.0575    28.9549 C.ar  1 <1>  -0.1500 
 47 H      -17.6678   -44.7073    29.7719 H     1 <1>   0.1500 
 48 O      -20.5640   -42.1715    27.4984 O.3   1 <1>  -0.5325 
 49 H      -21.0571   -42.2507    28.3440 H     1 <1>   0.4500 
 50 CL      -8.6472   -42.4462    35.1714 Cl    1 <1>  -0.1770 
@<TRIPOS>BOND
  1   1   2  1   
  2   1  27  ar  
  3   1  32  ar  
  4   2   3  1   
  5   2   4  1   
  6   4   5  1   
  7   4   6  1   
  8   4   9  1   
  9   6   7  am  
 10   6   8  1   
 11   7  17  2   
 12   7  27  1   
 13   8  36  2   
 14   9  10  1   
 15   9  11  1   
 16   9  12  1   
 17  12  13  1   
 18  12  14  am  
 19  14  15  2   
 20  14  16  1   
 21  16  18  ar  
 22  16  25  ar  
 23  18  19  1   
 24  18  20  ar  
 25  20  21  1   
 26  20  22  ar  
 27  22  23  ar  
 28  22  50  1   
 29  23  24  1   
 30  23  25  ar  
 31  25  26  1   
 32  27  34  ar  
 33  28  29  1   
 34  28  30  ar  
 35  28  34  ar  
 36  30  31  1   
 37  30  32  ar  
 38  32  33  1   
 39  34  35  1   
 40  36  37  1   
 41  36  38  1   
 42  38  39  ar  
 43  38  46  ar  
 44  39  40  1   
 45  39  41  ar  
 46  41  42  1   
 47  41  43  ar  
 48  43  44  ar  
 49  43  48  1   
 50  44  45  1   
 51  44  46  ar  
 52  46  47  1   
 53  48  49  1   
@<TRIPOS>SUBSTRUCTURE
  1 ****   7 GROUP 4 **** **** 0

# MOE 2015.10 (io_trps.svl 2015.10)
